REMARK  11 active torsions:
REMARK  status: ('A' for Active; 'I' for Inactive)
REMARK    1  A    between atoms: C_2  and  O_1 
REMARK    2  A    between atoms: C_5  and  C_10 
REMARK    3  A    between atoms: C_6  and  O_21 
REMARK       I    between atoms: C_10  and  N_8 
REMARK    4  A    between atoms: C_11  and  C_24 
REMARK       I    between atoms: C_11  and  N_13 
REMARK    5  A    between atoms: C_31  and  N_13 
REMARK    6  A    between atoms: C_19  and  C_26 
REMARK    7  A    between atoms: C_23  and  C_30 
REMARK    8  A    between atoms: C_31  and  C_32 
REMARK    9  A    between atoms: C_32  and  O_33 
REMARK   10  A    between atoms: C_34  and  O_33 
REMARK   11  A    between atoms: C_34  and  N_35 
ROOT
HETATM    1  O           1      11.256  -2.626  11.639  0.00  0.00    -0.360 OA
HETATM    2  H           1      10.727  -3.331  12.047  0.00  0.00     0.217 HD
ENDROOT
BRANCH   1   3
HETATM    3  C           1      12.398  -3.157  11.123  0.00  0.00     0.075 A 
HETATM    4  C           1      12.613  -4.480  11.220  0.00  0.00     0.074 A 
HETATM    5  C           1      13.712  -5.091  10.747  0.00  0.00     0.084 A 
HETATM    6  C           1      14.627  -4.333  10.115  0.00  0.00     0.066 A 
HETATM    7  C           1      14.430  -3.006  10.031  0.00  0.00     0.030 A 
HETATM    8  C           1      13.333  -2.400  10.517  0.00  0.00    -0.020 A 
BRANCH   5   9
HETATM    9  O           1      13.821  -6.442  10.860  0.00  0.00    -0.360 OA
HETATM   10  H           1      13.002  -6.796  11.243  0.00  0.00     0.217 HD
ENDBRANCH   5   9
BRANCH   6  11
HETATM   11  C           1      15.760  -4.886   9.596  0.00  0.00     0.257 C 
HETATM   12  O           1      16.279  -5.865  10.083  0.00  0.00    -0.267 OA
HETATM   13  N           1      16.200  -4.471   8.365  0.00  0.00    -0.334 N 
HETATM   14  C           1      15.377  -3.906   7.295  0.00  0.00     0.180 C 
HETATM   15  C           1      17.538  -4.743   7.864  0.00  0.00     0.136 C 
HETATM   16  C           1      16.383  -3.583   6.167  0.00  0.00     0.046 C 
HETATM   17  C           1      17.757  -3.594   6.861  0.00  0.00     0.039 C 
BRANCH  14  18
HETATM   18  C           1      14.274  -4.845   6.788  0.00  0.00     0.240 C 
HETATM   19  O           1      13.730  -4.651   5.728  0.00  0.00    -0.271 OA
HETATM   20  N           1      13.959  -5.903   7.601  0.00  0.00    -0.357 N 
HETATM   21  H           1      14.412  -6.012   8.515  0.00  0.00     0.162 HD
BRANCH  20  22
HETATM   22  C           1      13.003  -6.929   7.170  0.00  0.00     0.149 C 
BRANCH  22  23
HETATM   23  C           1      12.643  -7.868   8.319  0.00  0.00     0.189 C 
BRANCH  23  24
HETATM   24  O           1      11.796  -8.881   7.834  0.00  0.00    -0.361 OA
BRANCH  24  25
HETATM   25  C           1      11.428  -9.801   8.842  0.00  0.00     0.434 C 
BRANCH  25  26
HETATM   26  N           1      10.540 -10.823   8.268  0.00  0.00     0.101 N 
HETATM   27  H           1      10.064 -11.356   9.017  0.00  0.00     0.315 HD
HETATM   28  H           1       9.784 -10.369   7.727  0.00  0.00     0.315 HD
ENDBRANCH  25  26
ENDBRANCH  24  25
ENDBRANCH  23  24
ENDBRANCH  22  23
ENDBRANCH  20  22
ENDBRANCH  14  18
BRANCH  17  29
HETATM   29  C           1      18.165  -2.326   7.600  0.00  0.00    -0.052 A 
HETATM   30  C           1      17.353  -1.268   7.779  0.00  0.00     0.007 A 
HETATM   31  C           1      17.757  -0.181   8.457  0.00  0.00     0.001 A 
HETATM   32  C           1      18.995  -0.127   8.968  0.00  0.00     0.000 A 
HETATM   33  C           1      19.823  -1.166   8.792  0.00  0.00     0.001 A 
HETATM   34  C           1      19.406  -2.249   8.117  0.00  0.00     0.007 A 
ENDBRANCH  17  29
ENDBRANCH   6  11
BRANCH   8  35
HETATM   35  C           1      13.176  -0.891  10.385  0.00  0.00     0.013 C 
HETATM   36  C           1      13.128  -0.465   8.907  0.00  0.00     0.015 C 
HETATM   37  C           1      14.285  -0.140  11.142  0.00  0.00     0.015 C 
ENDBRANCH   8  35
ENDBRANCH   1   3
TORSDOF 11
